L24/1726516/_ATERRAMENTO.dss
! Aterramento do neutro (no 4) dos secundarios de BT
! Reactor de 0.5 ohm entre o no 4 e a terra (no 0).
New Reactor.NEUTRO_node_1027683339 phases=1 bus1=node_1027683339.4 bus2=node_1027683339.0 R=0.5 X=0
New Reactor.NEUTRO_node_1027683401 phases=1 bus1=node_1027683401.4 bus2=node_1027683401.0 R=0.5 X=0
New Reactor.NEUTRO_node_1027683542 phases=1 bus1=node_1027683542.4 bus2=node_1027683542.0 R=0.5 X=0
New Reactor.NEUTRO_node_1030096297 phases=1 bus1=node_1030096297.4 bus2=node_1030096297.0 R=0.5 X=0
New Reactor.NEUTRO_node_1172287805 phases=1 bus1=node_1172287805.4 bus2=node_1172287805.0 R=0.5 X=0
New Reactor.NEUTRO_node_1172287891 phases=1 bus1=node_1172287891.4 bus2=node_1172287891.0 R=0.5 X=0
New Reactor.NEUTRO_node_1193238256 phases=1 bus1=node_1193238256.4 bus2=node_1193238256.0 R=0.5 X=0
New Reactor.NEUTRO_node_1223606045 phases=1 bus1=node_1223606045.4 bus2=node_1223606045.0 R=0.5 X=0
New Reactor.NEUTRO_node_1223606302 phases=1 bus1=node_1223606302.4 bus2=node_1223606302.0 R=0.5 X=0
New Reactor.NEUTRO_node_1225791251 phases=1 bus1=node_1225791251.4 bus2=node_1225791251.0 R=0.5 X=0
New Reactor.NEUTRO_node_1243357926 phases=1 bus1=node_1243357926.4 bus2=node_1243357926.0 R=0.5 X=0
New Reactor.NEUTRO_node_1250949630 phases=1 bus1=node_1250949630.4 bus2=node_1250949630.0 R=0.5 X=0
New Reactor.NEUTRO_node_1250949727 phases=1 bus1=node_1250949727.4 bus2=node_1250949727.0 R=0.5 X=0
New Reactor.NEUTRO_node_1265905765 phases=1 bus1=node_1265905765.4 bus2=node_1265905765.0 R=0.5 X=0
New Reactor.NEUTRO_node_1329469644 phases=1 bus1=node_1329469644.4 bus2=node_1329469644.0 R=0.5 X=0
New Reactor.NEUTRO_node_1334201971 phases=1 bus1=node_1334201971.4 bus2=node_1334201971.0 R=0.5 X=0
New Reactor.NEUTRO_node_1341377394 phases=1 bus1=node_1341377394.4 bus2=node_1341377394.0 R=0.5 X=0
New Reactor.NEUTRO_node_1341377685 phases=1 bus1=node_1341377685.4 bus2=node_1341377685.0 R=0.5 X=0
New Reactor.NEUTRO_node_1343902160 phases=1 bus1=node_1343902160.4 bus2=node_1343902160.0 R=0.5 X=0
New Reactor.NEUTRO_node_1397933234 phases=1 bus1=node_1397933234.4 bus2=node_1397933234.0 R=0.5 X=0
New Reactor.NEUTRO_node_1565669845 phases=1 bus1=node_1565669845.4 bus2=node_1565669845.0 R=0.5 X=0
New Reactor.NEUTRO_node_1586976581 phases=1 bus1=node_1586976581.4 bus2=node_1586976581.0 R=0.5 X=0
New Reactor.NEUTRO_node_1615166830 phases=1 bus1=node_1615166830.4 bus2=node_1615166830.0 R=0.5 X=0
New Reactor.NEUTRO_node_1615166950 phases=1 bus1=node_1615166950.4 bus2=node_1615166950.0 R=0.5 X=0
New Reactor.NEUTRO_node_1633300524 phases=1 bus1=node_1633300524.4 bus2=node_1633300524.0 R=0.5 X=0
New Reactor.NEUTRO_node_1637908281 phases=1 bus1=node_1637908281.4 bus2=node_1637908281.0 R=0.5 X=0
New Reactor.NEUTRO_node_1699930263 phases=1 bus1=node_1699930263.4 bus2=node_1699930263.0 R=0.5 X=0
New Reactor.NEUTRO_node_1699930514 phases=1 bus1=node_1699930514.4 bus2=node_1699930514.0 R=0.5 X=0
New Reactor.NEUTRO_node_2000240006 phases=1 bus1=node_2000240006.4 bus2=node_2000240006.0 R=0.5 X=0
New Reactor.NEUTRO_node_2011004746 phases=1 bus1=node_2011004746.4 bus2=node_2011004746.0 R=0.5 X=0
New Reactor.NEUTRO_node_2011005039 phases=1 bus1=node_2011005039.4 bus2=node_2011005039.0 R=0.5 X=0
New Reactor.NEUTRO_node_2047916274 phases=1 bus1=node_2047916274.4 bus2=node_2047916274.0 R=0.5 X=0
New Reactor.NEUTRO_node_2051501540 phases=1 bus1=node_2051501540.4 bus2=node_2051501540.0 R=0.5 X=0
New Reactor.NEUTRO_node_2067453697 phases=1 bus1=node_2067453697.4 bus2=node_2067453697.0 R=0.5 X=0
New Reactor.NEUTRO_node_2067496674 phases=1 bus1=node_2067496674.4 bus2=node_2067496674.0 R=0.5 X=0
New Reactor.NEUTRO_node_2096013045 phases=1 bus1=node_2096013045.4 bus2=node_2096013045.0 R=0.5 X=0
New Reactor.NEUTRO_node_2096013075 phases=1 bus1=node_2096013075.4 bus2=node_2096013075.0 R=0.5 X=0
New Reactor.NEUTRO_node_2111664893 phases=1 bus1=node_2111664893.4 bus2=node_2111664893.0 R=0.5 X=0
New Reactor.NEUTRO_node_2114073745 phases=1 bus1=node_2114073745.4 bus2=node_2114073745.0 R=0.5 X=0
New Reactor.NEUTRO_node_2121859118 phases=1 bus1=node_2121859118.4 bus2=node_2121859118.0 R=0.5 X=0
New Reactor.NEUTRO_node_2126036734 phases=1 bus1=node_2126036734.4 bus2=node_2126036734.0 R=0.5 X=0
New Reactor.NEUTRO_node_2126036853 phases=1 bus1=node_2126036853.4 bus2=node_2126036853.0 R=0.5 X=0
New Reactor.NEUTRO_node_2126358810 phases=1 bus1=node_2126358810.4 bus2=node_2126358810.0 R=0.5 X=0
New Reactor.NEUTRO_node_2127638393 phases=1 bus1=node_2127638393.4 bus2=node_2127638393.0 R=0.5 X=0
New Reactor.NEUTRO_node_2132808749 phases=1 bus1=node_2132808749.4 bus2=node_2132808749.0 R=0.5 X=0
New Reactor.NEUTRO_node_2133864731 phases=1 bus1=node_2133864731.4 bus2=node_2133864731.0 R=0.5 X=0
New Reactor.NEUTRO_node_2141589607 phases=1 bus1=node_2141589607.4 bus2=node_2141589607.0 R=0.5 X=0
New Reactor.NEUTRO_node_2141933095 phases=1 bus1=node_2141933095.4 bus2=node_2141933095.0 R=0.5 X=0
New Reactor.NEUTRO_node_2156665842 phases=1 bus1=node_2156665842.4 bus2=node_2156665842.0 R=0.5 X=0
New Reactor.NEUTRO_node_2162836408 phases=1 bus1=node_2162836408.4 bus2=node_2162836408.0 R=0.5 X=0
New Reactor.NEUTRO_node_2207403880 phases=1 bus1=node_2207403880.4 bus2=node_2207403880.0 R=0.5 X=0
New Reactor.NEUTRO_node_2209291066 phases=1 bus1=node_2209291066.4 bus2=node_2209291066.0 R=0.5 X=0
New Reactor.NEUTRO_node_2216245357 phases=1 bus1=node_2216245357.4 bus2=node_2216245357.0 R=0.5 X=0
New Reactor.NEUTRO_node_2237466704 phases=1 bus1=node_2237466704.4 bus2=node_2237466704.0 R=0.5 X=0
New Reactor.NEUTRO_node_2276747549 phases=1 bus1=node_2276747549.4 bus2=node_2276747549.0 R=0.5 X=0
New Reactor.NEUTRO_node_2276747818 phases=1 bus1=node_2276747818.4 bus2=node_2276747818.0 R=0.5 X=0
New Reactor.NEUTRO_node_2290162078 phases=1 bus1=node_2290162078.4 bus2=node_2290162078.0 R=0.5 X=0
New Reactor.NEUTRO_node_2290162233 phases=1 bus1=node_2290162233.4 bus2=node_2290162233.0 R=0.5 X=0
New Reactor.NEUTRO_node_2295997847 phases=1 bus1=node_2295997847.4 bus2=node_2295997847.0 R=0.5 X=0
New Reactor.NEUTRO_node_2312392035 phases=1 bus1=node_2312392035.4 bus2=node_2312392035.0 R=0.5 X=0
New Reactor.NEUTRO_node_2337773993 phases=1 bus1=node_2337773993.4 bus2=node_2337773993.0 R=0.5 X=0
New Reactor.NEUTRO_node_2372568614 phases=1 bus1=node_2372568614.4 bus2=node_2372568614.0 R=0.5 X=0
New Reactor.NEUTRO_node_2400947396 phases=1 bus1=node_2400947396.4 bus2=node_2400947396.0 R=0.5 X=0
New Reactor.NEUTRO_node_2401046242 phases=1 bus1=node_2401046242.4 bus2=node_2401046242.0 R=0.5 X=0
New Reactor.NEUTRO_node_2410763368 phases=1 bus1=node_2410763368.4 bus2=node_2410763368.0 R=0.5 X=0
New Reactor.NEUTRO_node_2427552812 phases=1 bus1=node_2427552812.4 bus2=node_2427552812.0 R=0.5 X=0
New Reactor.NEUTRO_node_2435651375 phases=1 bus1=node_2435651375.4 bus2=node_2435651375.0 R=0.5 X=0
New Reactor.NEUTRO_node_2448808378 phases=1 bus1=node_2448808378.4 bus2=node_2448808378.0 R=0.5 X=0
New Reactor.NEUTRO_node_2450847864 phases=1 bus1=node_2450847864.4 bus2=node_2450847864.0 R=0.5 X=0
New Reactor.NEUTRO_node_2453016256 phases=1 bus1=node_2453016256.4 bus2=node_2453016256.0 R=0.5 X=0
New Reactor.NEUTRO_node_2467143540 phases=1 bus1=node_2467143540.4 bus2=node_2467143540.0 R=0.5 X=0
New Reactor.NEUTRO_node_2467977116 phases=1 bus1=node_2467977116.4 bus2=node_2467977116.0 R=0.5 X=0
New Reactor.NEUTRO_node_2474787446 phases=1 bus1=node_2474787446.4 bus2=node_2474787446.0 R=0.5 X=0
New Reactor.NEUTRO_node_2490210907 phases=1 bus1=node_2490210907.4 bus2=node_2490210907.0 R=0.5 X=0
New Reactor.NEUTRO_node_2492954778 phases=1 bus1=node_2492954778.4 bus2=node_2492954778.0 R=0.5 X=0
New Reactor.NEUTRO_node_2497201501 phases=1 bus1=node_2497201501.4 bus2=node_2497201501.0 R=0.5 X=0
New Reactor.NEUTRO_node_2499096170 phases=1 bus1=node_2499096170.4 bus2=node_2499096170.0 R=0.5 X=0
New Reactor.NEUTRO_node_2517233155 phases=1 bus1=node_2517233155.4 bus2=node_2517233155.0 R=0.5 X=0
New Reactor.NEUTRO_node_2521175034 phases=1 bus1=node_2521175034.4 bus2=node_2521175034.0 R=0.5 X=0
New Reactor.NEUTRO_node_2521475508 phases=1 bus1=node_2521475508.4 bus2=node_2521475508.0 R=0.5 X=0
New Reactor.NEUTRO_node_2532524105 phases=1 bus1=node_2532524105.4 bus2=node_2532524105.0 R=0.5 X=0
New Reactor.NEUTRO_node_2533215348 phases=1 bus1=node_2533215348.4 bus2=node_2533215348.0 R=0.5 X=0
New Reactor.NEUTRO_node_2535658564 phases=1 bus1=node_2535658564.4 bus2=node_2535658564.0 R=0.5 X=0
New Reactor.NEUTRO_node_2538204898 phases=1 bus1=node_2538204898.4 bus2=node_2538204898.0 R=0.5 X=0
New Reactor.NEUTRO_node_2554384907 phases=1 bus1=node_2554384907.4 bus2=node_2554384907.0 R=0.5 X=0
New Reactor.NEUTRO_node_2565527796 phases=1 bus1=node_2565527796.4 bus2=node_2565527796.0 R=0.5 X=0
New Reactor.NEUTRO_node_2565841129 phases=1 bus1=node_2565841129.4 bus2=node_2565841129.0 R=0.5 X=0
New Reactor.NEUTRO_node_2574892899 phases=1 bus1=node_2574892899.4 bus2=node_2574892899.0 R=0.5 X=0
New Reactor.NEUTRO_node_2580844352 phases=1 bus1=node_2580844352.4 bus2=node_2580844352.0 R=0.5 X=0
New Reactor.NEUTRO_node_2580844450 phases=1 bus1=node_2580844450.4 bus2=node_2580844450.0 R=0.5 X=0
New Reactor.NEUTRO_node_2585684042 phases=1 bus1=node_2585684042.4 bus2=node_2585684042.0 R=0.5 X=0
New Reactor.NEUTRO_node_2592184833 phases=1 bus1=node_2592184833.4 bus2=node_2592184833.0 R=0.5 X=0
New Reactor.NEUTRO_node_2592184922 phases=1 bus1=node_2592184922.4 bus2=node_2592184922.0 R=0.5 X=0
New Reactor.NEUTRO_node_2610743490 phases=1 bus1=node_2610743490.4 bus2=node_2610743490.0 R=0.5 X=0
New Reactor.NEUTRO_node_2655242215 phases=1 bus1=node_2655242215.4 bus2=node_2655242215.0 R=0.5 X=0
New Reactor.NEUTRO_node_2658157798 phases=1 bus1=node_2658157798.4 bus2=node_2658157798.0 R=0.5 X=0
New Reactor.NEUTRO_node_2671331783 phases=1 bus1=node_2671331783.4 bus2=node_2671331783.0 R=0.5 X=0
New Reactor.NEUTRO_node_2677910197 phases=1 bus1=node_2677910197.4 bus2=node_2677910197.0 R=0.5 X=0
New Reactor.NEUTRO_node_2722701024 phases=1 bus1=node_2722701024.4 bus2=node_2722701024.0 R=0.5 X=0
New Reactor.NEUTRO_node_2723827570 phases=1 bus1=node_2723827570.4 bus2=node_2723827570.0 R=0.5 X=0
New Reactor.NEUTRO_node_2737665573 phases=1 bus1=node_2737665573.4 bus2=node_2737665573.0 R=0.5 X=0
New Reactor.NEUTRO_node_2740855958 phases=1 bus1=node_2740855958.4 bus2=node_2740855958.0 R=0.5 X=0
New Reactor.NEUTRO_node_2741955432 phases=1 bus1=node_2741955432.4 bus2=node_2741955432.0 R=0.5 X=0
New Reactor.NEUTRO_node_2747426598 phases=1 bus1=node_2747426598.4 bus2=node_2747426598.0 R=0.5 X=0
New Reactor.NEUTRO_node_2754583913 phases=1 bus1=node_2754583913.4 bus2=node_2754583913.0 R=0.5 X=0
New Reactor.NEUTRO_node_2763064828 phases=1 bus1=node_2763064828.4 bus2=node_2763064828.0 R=0.5 X=0
New Reactor.NEUTRO_node_2763697635 phases=1 bus1=node_2763697635.4 bus2=node_2763697635.0 R=0.5 X=0
New Reactor.NEUTRO_node_2768290616 phases=1 bus1=node_2768290616.4 bus2=node_2768290616.0 R=0.5 X=0
New Reactor.NEUTRO_node_2778470519 phases=1 bus1=node_2778470519.4 bus2=node_2778470519.0 R=0.5 X=0
New Reactor.NEUTRO_node_2787059657 phases=1 bus1=node_2787059657.4 bus2=node_2787059657.0 R=0.5 X=0
New Reactor.NEUTRO_node_2808959415 phases=1 bus1=node_2808959415.4 bus2=node_2808959415.0 R=0.5 X=0
New Reactor.NEUTRO_node_2808959468 phases=1 bus1=node_2808959468.4 bus2=node_2808959468.0 R=0.5 X=0
New Reactor.NEUTRO_node_2815539351 phases=1 bus1=node_2815539351.4 bus2=node_2815539351.0 R=0.5 X=0
New Reactor.NEUTRO_node_2825431196 phases=1 bus1=node_2825431196.4 bus2=node_2825431196.0 R=0.5 X=0
New Reactor.NEUTRO_node_2827573360 phases=1 bus1=node_2827573360.4 bus2=node_2827573360.0 R=0.5 X=0
New Reactor.NEUTRO_node_2850569206 phases=1 bus1=node_2850569206.4 bus2=node_2850569206.0 R=0.5 X=0
New Reactor.NEUTRO_node_2861208988 phases=1 bus1=node_2861208988.4 bus2=node_2861208988.0 R=0.5 X=0
New Reactor.NEUTRO_node_2862617047 phases=1 bus1=node_2862617047.4 bus2=node_2862617047.0 R=0.5 X=0
New Reactor.NEUTRO_node_2862659577 phases=1 bus1=node_2862659577.4 bus2=node_2862659577.0 R=0.5 X=0
New Reactor.NEUTRO_node_2883992886 phases=1 bus1=node_2883992886.4 bus2=node_2883992886.0 R=0.5 X=0
New Reactor.NEUTRO_node_2931914588 phases=1 bus1=node_2931914588.4 bus2=node_2931914588.0 R=0.5 X=0
New Reactor.NEUTRO_node_2941704179 phases=1 bus1=node_2941704179.4 bus2=node_2941704179.0 R=0.5 X=0
New Reactor.NEUTRO_node_2964843969 phases=1 bus1=node_2964843969.4 bus2=node_2964843969.0 R=0.5 X=0
New Reactor.NEUTRO_node_415725829 phases=1 bus1=node_415725829.4 bus2=node_415725829.0 R=0.5 X=0
New Reactor.NEUTRO_node_415725832 phases=1 bus1=node_415725832.4 bus2=node_415725832.0 R=0.5 X=0
New Reactor.NEUTRO_node_415725835 phases=1 bus1=node_415725835.4 bus2=node_415725835.0 R=0.5 X=0
New Reactor.NEUTRO_node_415726084 phases=1 bus1=node_415726084.4 bus2=node_415726084.0 R=0.5 X=0
New Reactor.NEUTRO_node_415726087 phases=1 bus1=node_415726087.4 bus2=node_415726087.0 R=0.5 X=0
New Reactor.NEUTRO_node_415726471 phases=1 bus1=node_415726471.4 bus2=node_415726471.0 R=0.5 X=0
New Reactor.NEUTRO_node_415726495 phases=1 bus1=node_415726495.4 bus2=node_415726495.0 R=0.5 X=0
New Reactor.NEUTRO_node_415726552 phases=1 bus1=node_415726552.4 bus2=node_415726552.0 R=0.5 X=0
New Reactor.NEUTRO_node_415727182 phases=1 bus1=node_415727182.4 bus2=node_415727182.0 R=0.5 X=0
New Reactor.NEUTRO_node_415727185 phases=1 bus1=node_415727185.4 bus2=node_415727185.0 R=0.5 X=0
New Reactor.NEUTRO_node_415727188 phases=1 bus1=node_415727188.4 bus2=node_415727188.0 R=0.5 X=0
New Reactor.NEUTRO_node_415727248 phases=1 bus1=node_415727248.4 bus2=node_415727248.0 R=0.5 X=0
New Reactor.NEUTRO_node_415727251 phases=1 bus1=node_415727251.4 bus2=node_415727251.0 R=0.5 X=0
New Reactor.NEUTRO_node_415727254 phases=1 bus1=node_415727254.4 bus2=node_415727254.0 R=0.5 X=0
New Reactor.NEUTRO_node_415727302 phases=1 bus1=node_415727302.4 bus2=node_415727302.0 R=0.5 X=0
New Reactor.NEUTRO_node_415770992 phases=1 bus1=node_415770992.4 bus2=node_415770992.0 R=0.5 X=0
New Reactor.NEUTRO_node_415770995 phases=1 bus1=node_415770995.4 bus2=node_415770995.0 R=0.5 X=0
New Reactor.NEUTRO_node_415771052 phases=1 bus1=node_415771052.4 bus2=node_415771052.0 R=0.5 X=0
New Reactor.NEUTRO_node_415771055 phases=1 bus1=node_415771055.4 bus2=node_415771055.0 R=0.5 X=0
New Reactor.NEUTRO_node_415771058 phases=1 bus1=node_415771058.4 bus2=node_415771058.0 R=0.5 X=0
New Reactor.NEUTRO_node_415771193 phases=1 bus1=node_415771193.4 bus2=node_415771193.0 R=0.5 X=0
New Reactor.NEUTRO_node_415771196 phases=1 bus1=node_415771196.4 bus2=node_415771196.0 R=0.5 X=0
New Reactor.NEUTRO_node_415771589 phases=1 bus1=node_415771589.4 bus2=node_415771589.0 R=0.5 X=0
New Reactor.NEUTRO_node_415771592 phases=1 bus1=node_415771592.4 bus2=node_415771592.0 R=0.5 X=0
New Reactor.NEUTRO_node_415771595 phases=1 bus1=node_415771595.4 bus2=node_415771595.0 R=0.5 X=0
New Reactor.NEUTRO_node_416625791 phases=1 bus1=node_416625791.4 bus2=node_416625791.0 R=0.5 X=0
New Reactor.NEUTRO_node_417167490 phases=1 bus1=node_417167490.4 bus2=node_417167490.0 R=0.5 X=0
New Reactor.NEUTRO_node_417167496 phases=1 bus1=node_417167496.4 bus2=node_417167496.0 R=0.5 X=0
New Reactor.NEUTRO_node_417168885 phases=1 bus1=node_417168885.4 bus2=node_417168885.0 R=0.5 X=0
New Reactor.NEUTRO_node_417168990 phases=1 bus1=node_417168990.4 bus2=node_417168990.0 R=0.5 X=0
New Reactor.NEUTRO_node_417169794 phases=1 bus1=node_417169794.4 bus2=node_417169794.0 R=0.5 X=0
New Reactor.NEUTRO_node_417170523 phases=1 bus1=node_417170523.4 bus2=node_417170523.0 R=0.5 X=0
New Reactor.NEUTRO_node_417170538 phases=1 bus1=node_417170538.4 bus2=node_417170538.0 R=0.5 X=0
New Reactor.NEUTRO_node_417183582 phases=1 bus1=node_417183582.4 bus2=node_417183582.0 R=0.5 X=0
New Reactor.NEUTRO_node_417183810 phases=1 bus1=node_417183810.4 bus2=node_417183810.0 R=0.5 X=0
New Reactor.NEUTRO_node_417183843 phases=1 bus1=node_417183843.4 bus2=node_417183843.0 R=0.5 X=0
New Reactor.NEUTRO_node_417184068 phases=1 bus1=node_417184068.4 bus2=node_417184068.0 R=0.5 X=0
New Reactor.NEUTRO_node_417184299 phases=1 bus1=node_417184299.4 bus2=node_417184299.0 R=0.5 X=0
New Reactor.NEUTRO_node_417184359 phases=1 bus1=node_417184359.4 bus2=node_417184359.0 R=0.5 X=0
New Reactor.NEUTRO_node_417184365 phases=1 bus1=node_417184365.4 bus2=node_417184365.0 R=0.5 X=0
New Reactor.NEUTRO_node_417184590 phases=1 bus1=node_417184590.4 bus2=node_417184590.0 R=0.5 X=0
New Reactor.NEUTRO_node_417184599 phases=1 bus1=node_417184599.4 bus2=node_417184599.0 R=0.5 X=0
New Reactor.NEUTRO_node_417184665 phases=1 bus1=node_417184665.4 bus2=node_417184665.0 R=0.5 X=0
New Reactor.NEUTRO_node_417185175 phases=1 bus1=node_417185175.4 bus2=node_417185175.0 R=0.5 X=0
New Reactor.NEUTRO_node_417185364 phases=1 bus1=node_417185364.4 bus2=node_417185364.0 R=0.5 X=0
New Reactor.NEUTRO_node_417186963 phases=1 bus1=node_417186963.4 bus2=node_417186963.0 R=0.5 X=0
New Reactor.NEUTRO_node_417216357 phases=1 bus1=node_417216357.4 bus2=node_417216357.0 R=0.5 X=0
New Reactor.NEUTRO_node_417216459 phases=1 bus1=node_417216459.4 bus2=node_417216459.0 R=0.5 X=0
New Reactor.NEUTRO_node_417216558 phases=1 bus1=node_417216558.4 bus2=node_417216558.0 R=0.5 X=0
New Reactor.NEUTRO_node_417216561 phases=1 bus1=node_417216561.4 bus2=node_417216561.0 R=0.5 X=0
New Reactor.NEUTRO_node_417216648 phases=1 bus1=node_417216648.4 bus2=node_417216648.0 R=0.5 X=0
New Reactor.NEUTRO_node_417216714 phases=1 bus1=node_417216714.4 bus2=node_417216714.0 R=0.5 X=0
New Reactor.NEUTRO_node_417216717 phases=1 bus1=node_417216717.4 bus2=node_417216717.0 R=0.5 X=0
New Reactor.NEUTRO_node_417216807 phases=1 bus1=node_417216807.4 bus2=node_417216807.0 R=0.5 X=0
New Reactor.NEUTRO_node_417216813 phases=1 bus1=node_417216813.4 bus2=node_417216813.0 R=0.5 X=0
New Reactor.NEUTRO_node_417217236 phases=1 bus1=node_417217236.4 bus2=node_417217236.0 R=0.5 X=0
New Reactor.NEUTRO_node_417217308 phases=1 bus1=node_417217308.4 bus2=node_417217308.0 R=0.5 X=0
New Reactor.NEUTRO_node_417217413 phases=1 bus1=node_417217413.4 bus2=node_417217413.0 R=0.5 X=0
New Reactor.NEUTRO_node_417217416 phases=1 bus1=node_417217416.4 bus2=node_417217416.0 R=0.5 X=0
New Reactor.NEUTRO_node_417217419 phases=1 bus1=node_417217419.4 bus2=node_417217419.0 R=0.5 X=0
New Reactor.NEUTRO_node_417217455 phases=1 bus1=node_417217455.4 bus2=node_417217455.0 R=0.5 X=0
New Reactor.NEUTRO_node_417217461 phases=1 bus1=node_417217461.4 bus2=node_417217461.0 R=0.5 X=0
New Reactor.NEUTRO_node_417217509 phases=1 bus1=node_417217509.4 bus2=node_417217509.0 R=0.5 X=0
New Reactor.NEUTRO_node_417217512 phases=1 bus1=node_417217512.4 bus2=node_417217512.0 R=0.5 X=0
New Reactor.NEUTRO_node_417217575 phases=1 bus1=node_417217575.4 bus2=node_417217575.0 R=0.5 X=0
New Reactor.NEUTRO_node_417217734 phases=1 bus1=node_417217734.4 bus2=node_417217734.0 R=0.5 X=0
New Reactor.NEUTRO_node_417217737 phases=1 bus1=node_417217737.4 bus2=node_417217737.0 R=0.5 X=0
New Reactor.NEUTRO_node_417217797 phases=1 bus1=node_417217797.4 bus2=node_417217797.0 R=0.5 X=0
New Reactor.NEUTRO_node_417217902 phases=1 bus1=node_417217902.4 bus2=node_417217902.0 R=0.5 X=0
New Reactor.NEUTRO_node_417230847 phases=1 bus1=node_417230847.4 bus2=node_417230847.0 R=0.5 X=0
New Reactor.NEUTRO_node_417230856 phases=1 bus1=node_417230856.4 bus2=node_417230856.0 R=0.5 X=0
New Reactor.NEUTRO_node_417231423 phases=1 bus1=node_417231423.4 bus2=node_417231423.0 R=0.5 X=0
New Reactor.NEUTRO_node_417231429 phases=1 bus1=node_417231429.4 bus2=node_417231429.0 R=0.5 X=0
New Reactor.NEUTRO_node_417231558 phases=1 bus1=node_417231558.4 bus2=node_417231558.0 R=0.5 X=0
New Reactor.NEUTRO_node_417231564 phases=1 bus1=node_417231564.4 bus2=node_417231564.0 R=0.5 X=0
New Reactor.NEUTRO_node_417231567 phases=1 bus1=node_417231567.4 bus2=node_417231567.0 R=0.5 X=0
New Reactor.NEUTRO_node_417231585 phases=1 bus1=node_417231585.4 bus2=node_417231585.0 R=0.5 X=0
...
